Here is some text $$with signs like $ in count 2 $$which make new line.
And here is a real
new line.
But there can be another   things in our program,  for example, sings for 
removing parts of text.