Here is some text 
with signs like $ in count 2 
which make new line.
And here is a real
new line.
But there can be another#  strange things in our program#, wowU3 for example, sings for @this is wrong text!! you can't see it!!@
removing parts of text.
